*SPEF "IEEE 1481-1999"
*DESIGN  "aer_brain_aer_TILE_AER_0_"
*DATE "Wed Aug 10 16:14:44 2016"
*VENDOR "Cadence Design Systems"
*PROGRAM "Cadence Quantus QRC Extraction"
*VERSION "14.2.3 Linux 64 bit - (Wed Jun 17 00:01:02 PDT 2015)"
*DESIGN_FLOW "Physical Verification"
*DIVIDER /
*DELIMITER :
*BUS_DELIMITER []
*T_UNIT 1 PS
*C_UNIT 1e15 FF
*R_UNIT 1 OHM
*L_UNIT 1 MH
// DeviceFingerDelim "@"
// caps2d version: 12

*NAME_MAP
*1 nrn__req_012_1
*2 xaext__node/__ce_03_1
*3 xaext__node/__u_00_1
*4 xaext__node/__ce_02_1
*5 xaext__node/__u_02_1
*6 xaext__node/__ce_01_1
*7 xaext__node/__u_03_1
*8 xaext__node/__ce_00_1
*9 __mem_2b_01_1_2d_00_1
*10 xaext__leaf_00_1/#49
*11 xbuf__syn/#68
*12 xbuf__syn/#58
*13 xbuf__syn/#60
*14 xaext__node/#113
*15 xaext__node/#112
*16 xaext__node/#58
*17 xaext__leaf_03_1/xarb/xnode_02_1/xmu__ex/#9
*18 xaext__node/#54
*19 xaext__node/#55
*20 xaext__node/#56
*21 xaext__node/#57
*22 xmem__deserial/xdeserial/xnode_00_1/#20
*23 xaext__leaf_00_1/#63
*24 xbuf__nrn/#145
*25 xbuf__nrn/#107
*26 xbuf__nrn/#144
*27 xaerv__leaf/#88
*28 xmem__deserial/xdeserial/xnode_02_1/xM14_
*29 xmem__deserial/xdeserial/xnode_02_1/xM15_
*30 xmem__deserial/xdeserial/xnode_02_1/xM16_
*31 nrn__req_013_1
*32 xmem__deserial/xdeserial/xnode_02_1/xM17_
*33 xmem__deserial/xdeserial/xnode_02_1/xM35_
*34 xmem__deserial/xdeserial/xnode_02_1/xM62_
*35 xmem__deserial/xdeserial/xnode_02_1/xM61_
*36 xmem__deserial/xdeserial/xnode_02_1/xM57_
*37 xaext__leaf_01_1/#84
*38 xaext__leaf_01_1/#40
*39 xaext__leaf_01_1/#41
*40 xaext__leaf_01_1/#83
*41 xaext__leaf_01_1/#42
*42 xaext__leaf_01_1/#43
*43 __mem_2b_01_1_2d_01_1
*44 xmem__deserial/xdeserial/xnode_00_1/#44
*45 xmem__deserial/xdeserial/xnode_00_1/#21
*46 xaext__leaf_02_1/xarb/xnode_02_1/xpreq/#13
*47 xaerv__leaf/#58
*48 xaext__node/xM116_
*49 xbuf__syn/xM0_
*50 xbuf__syn/xM40_
*51 nrn__req_014_1
*52 xaerv__leaf/#62
*53 __mem_2b_01_1_2d_02_1
*54 xaext__leaf_02_1/xarb/xnode_02_1/xpreq/#18
*55 xaext__leaf_02_1/xarb/xnode_02_1/xpreq/#17
*56 xaext__node/#fb2#
*57 xaext__node/#26
*58 xaext__node/#119
*59 xaext__node/#25
*60 xaext__node/#118
*61 xaerv__leaf/#73
*62 xaext__leaf_03_1/#70
*63 xaext__leaf_03_1/#45
*64 xaext__leaf_03_1/#46
*65 xaext__leaf_03_1/#47
*66 xaext__leaf_03_1/#69
*67 xbuf__syn/#7
*68 xaext__node/__u_01_1
*69 xaext__node/__v
*70 xaext__node/v
*71 nrn__req_015_1
*72 xaext__node/#fb0#
*73 xaext__node/c___00_1
*74 xaext__node/c___02_1
*75 xaext__node/c___03_1
*76 xaerv__leaf/#124
*77 xaerv__leaf/#74
*78 xaerv__leaf/#75
*79 xaerv__leaf/#123
*80 xaext__node/c___01_1
*81 xmem__deserial/xdeserial/node_00_1_2__si
*82 xmem__deserial/xdeserial/#fb0#
*83 mem__deserial_2__y_2e
*84 xmem__deserial/xdeserial/node_03_1_2__so
*85 __mem_2b_01_1_2d_03_1
*86 aerv__leaf_2ce__mem_00_1
*87 xaerv__leaf/__c__syn_03_1_2t
*88 xaerv__leaf/__c__syn_03_1_2f
*89 xaerv__leaf/__v
*90 xaerv__leaf/__c__syn_02_1_2t
*91 xaerv__leaf/__c__syn_02_1_2f
*92 xaerv__leaf/cp__syn_01_1
*93 xaerv__leaf/__uu
*94 xaerv__leaf/__c__syn_01_1_2t
*95 xaerv__leaf/v
*96 xaerv__leaf/__c__syn_01_1_2f
*97 xaerv__leaf/__c__syn_00_1_2t
*98 xaerv__leaf/__c__syn_00_1_2f
*99 xaerv__leaf/cp__syn_00_1
*100 xaerv__leaf/____pp
*101 xaerv__leaf/uu
*102 xaerv__leaf/__u__syn_00_1
*103 xaerv__leaf/__u__syn_01_1
*104 xaerv__leaf/__u__mem_00_1
*105 xaext__leaf_00_1/xarb/__mutex_2__o_00_1
*106 xaext__leaf_00_1/xarb/xnode_01_1/preq_2qi_00_1
*107 buf__nrn_2ya_01_1
*108 buf__nrn_2ya_04_1
*109 xaext__leaf_00_1/xarb/node_01_1_2pi
*110 xaext__leaf_00_1/c_01_1
*111 xaext__leaf_00_1/xarb/xnode_01_1/xmu__ex/__arb_2__o_00_1
*112 xbuf__nrn/xM32_
*113 xbuf__nrn/xM33_
*114 xbuf__nrn/xM104_
*115 xbuf__nrn/xM176_
*116 buf__nrn_2__yp_01_1
*117 xaext__leaf_00_1/xarb/xnode_01_1/preq_2qi_01_1
*118 xaext__leaf_00_1/xarb/__mutex_2__i_00_1
*119 xaext__leaf_00_1/c_03_1
*120 xaext__leaf_00_1/xarb/node_02_1_2pi
*121 xaext__leaf_00_1/xarb/xnode_01_1/xmu__ex/__arb_2__o_01_1
*122 buf__nrn_2ya_00_1
*123 xaext__leaf_00_1/xarb/__mutex_2__i_01_1
*124 xaext__leaf_01_1/xarb/xnode_01_1/preq_2qi_00_1
*125 xaext__leaf_00_1/c_00_1
*126 xaext__leaf_01_1/xarb/xnode_01_1/xmu__ex/__arb_2__o_00_1
*127 xaext__leaf_00_1/xarb/xnode_02_1/preq_2qi_01_1
*128 xaext__leaf_01_1/c_01_1
*129 xaext__leaf_00_1/__c_01_1
*130 xaext__leaf_00_1/xarb/__mutex_2__o_01_1
*131 xaext__leaf_00_1/xarb/xnode_02_1/preq_2qi_00_1
*132 xaext__leaf_01_1/xarb/xnode_02_1/xmu__ex/x__arb/x_INTSUB_0/xM2_
*133 xaext__leaf_01_1/xarb/xnode_02_1/xmu__ex/x__arb/x_INTSUB_0/xM1_
*134 xaext__leaf_01_1/xarb/xnode_02_1/xmu__ex/x__arb/x_INTSUB_0/xM10_
*135 xaext__leaf_01_1/xarb/xnode_02_1/xmu__ex/x__arb/x_INTSUB_0/xM8_
*136 xaext__leaf_01_1/xarb/xnode_02_1/xmu__ex/x__arb/x_INTSUB_0/xM0_
*137 xaext__leaf_01_1/xarb/xnode_02_1/xmu__ex/x__arb/x_INTSUB_0/xM3_
*138 xaext__leaf_01_1/xarb/xnode_02_1/xmu__ex/x__arb/x_INTSUB_0/xM11_pass
*139 xaext__leaf_01_1/xarb/xnode_02_1/xmu__ex/x__arb/x_INTSUB_0/xM6_
*140 xaext__leaf_01_1/xarb/xnode_02_1/xmu__ex/x__arb/x_INTSUB_0/xM7_
*141 xaext__leaf_01_1/xarb/xnode_02_1/xmu__ex/x__arb/x_INTSUB_0/xM5_
*142 xaext__node/xarb/xnode_01_1/xpreq/__qo_01_1
*143 xaext__node/xM126_
*144 xaext__leaf_01_1/xarb/xM0_
*145 xaext__leaf_01_1/xarb/xM2_
*146 xaext__leaf_01_1/xarb/xnode_01_1/xpreq/xM4_
*147 xaext__leaf_01_1/xarb/xnode_01_1/xpreq/xM3_
*148 xaext__leaf_01_1/xarb/xnode_01_1/xpreq/xM20_keeper
*149 xaext__leaf_01_1/xarb/xnode_01_1/xpreq/xM6_keeper
*150 xaext__leaf_01_1/xarb/xnode_01_1/xpreq/xM12_
*151 xaext__leaf_01_1/xarb/xnode_01_1/xpreq/xM19_
*152 xaext__leaf_01_1/xarb/xnode_01_1/xpreq/xM21_keeper
*153 xaext__leaf_01_1/xarb/xnode_01_1/xpreq/xM14_keeper
*154 xaext__leaf_01_1/xarb/xnode_01_1/xpreq/xM11_
*155 xaext__leaf_01_1/xarb/xnode_01_1/xmu__ex/x__arb/x_00_1
*156 xaext__leaf_01_1/#55
*157 xrepeater__wires/x__/xp__ce____c__pe_00_1/xrepeater__0/x_01_1
*158 xbuf__syn/xM10_
*159 xbuf__syn/xM34_keeper
*160 xbuf__syn/xM85_
*161 xbuf__syn/xM11_
*162 xbuf__syn/xM14_
*163 xbuf__syn/xM70_keeper
*164 xbuf__syn/xM86_keeper
*165 xbuf__syn/xM84_
*166 xbuf__syn/xM50_
*167 xbuf__syn/xM52_
*168 xaext__leaf_01_1/xarb/xnode_01_1/xmu__ex/x__arb/x_01_1
*169 xaext__leaf_03_1/xarb/xnode_01_1/xmu__ex/xM6_
*170 xaext__leaf_03_1/xarb/xnode_01_1/xmu__ex/xM0_
*171 xaext__leaf_03_1/xarb/xnode_01_1/xmu__ex/xM3_
*172 xaext__leaf_03_1/xarb/xnode_01_1/xmu__ex/xM2_
*173 xaext__leaf_01_1/xM132_
*174 xaext__leaf_01_1/xM24_
*175 xaext__leaf_01_1/xM70_
*176 xaext__leaf_01_1/xM69_
*177 xrepeater__wires/x__/xp__ce____c__pe_01_1/xrepeater__0/x_01_1
*178 xbuf__nrn/xM39_
*179 xbuf__nrn/xM38_
*180 xbuf__nrn/xM181_
*181 xbuf__nrn/xM182_keeper
*182 xbuf__nrn/xM73_keeper
*183 xbuf__nrn/xM109_
*184 xbuf__nrn/xM108_
*185 xbuf__nrn/xM183_keeper
*186 xbuf__nrn/xM137_keeper
*187 xaext__leaf_00_1/xarb/xnode_02_1/xpreq/xM15_
*188 xaext__leaf_00_1/xarb/xnode_02_1/xpreq/xM0_
*189 xaext__leaf_00_1/xarb/xnode_02_1/xpreq/xM8_
*190 xaext__leaf_00_1/xarb/xnode_02_1/xpreq/xM7_
*191 xaext__leaf_01_1/xM35_keeper
*192 xaext__leaf_01_1/xM103_keeper
*193 xaext__leaf_01_1/xM102_
*194 xaext__leaf_01_1/xM106_
*195 xaext__leaf_01_1/xM14_
*196 xaext__leaf_01_1/xM34_
*197 xaext__leaf_01_1/xM83_keeper
*198 xaext__leaf_01_1/xM104_keeper
*199 xaext__leaf_01_1/xM101_
*200 xaext__leaf_03_1/p_2d_01_1
*201 xaext__leaf_01_1/xM105_
*202 xaerv__leaf/xM38_
*203 xaerv__leaf/xM95_
*204 __mem_2a
*205 xrepeater__wires/x__/xp__ce____c__pe_02_1/xrepeater__0/x_01_1
*206 g_2vnsub
*207 nrn__ack_010_1
*208 xaext__node/xarb/xnode_02_1/xpreq/#7
*209 xaext__leaf_00_1/xarb/xnode_02_1/xmu__ex/xM6_
*210 xbuf__syn/__y_01_1_2f
*211 xaext__leaf_00_1/xarb/xnode_02_1/xmu__ex/xM0_
*212 xaext__leaf_00_1/xarb/xnode_02_1/xmu__ex/xM3_
*213 xaext__leaf_00_1/xarb/xnode_02_1/xmu__ex/xM2_
*214 xaext__leaf_00_1/xM18_
*215 xaext__leaf_00_1/xM32_keeper
*216 xaext__leaf_00_1/xM95_keeper
*217 xaext__leaf_00_1/xM93_
*218 xaext__leaf_00_1/xM92_
*219 xaext__leaf_00_1/xM91_
*220 xaext__leaf_00_1/xM90_
*221 xaext__leaf_00_1/xM0_
*222 xaext__leaf_00_1/xM80_keeper
*223 xaext__leaf_00_1/xM96_keeper
*224 xaext__leaf_03_1/xM2_
*225 xaext__leaf_03_1/xM10_
*226 xaext__leaf_03_1/xM44_
*227 xaext__leaf_03_1/xM50_
*228 xrepeater__wires/x__/xp__ce____c__pe_03_1/xrepeater__0/x_01_1
*229 xmem__deserial/xdeserial/xnode_02_1/y___2d_00_1
*230 xbuf__nrn/xM44_
*231 xbuf__nrn/xM45_
*232 xbuf__nrn/xM113_
*233 xbuf__nrn/xM188_
*234 xrepeater__wires/x__/xc__p____p__c_01_1/x___03_1/xrepeater__0/xM0_
*235 xrepeater__wires/x__/xc__p____p__c_01_1/x___03_1/xrepeater__0/xM0__f1_
*236 xrepeater__wires/x__/xc__p____p__c_01_1/x___03_1/xrepeater__0/xM1__f1_
*237 xrepeater__wires/x__/xc__p____p__c_01_1/x___03_1/xrepeater__0/xM1_
*238 xaerv__leaf/xM22_
*239 xaerv__leaf/xM61_keeper
*240 xaerv__leaf/xM164_keeper
*241 xaerv__leaf/xM163_
*242 xaerv__leaf/xM23_
*243 xaerv__leaf/xM43_
*244 xaerv__leaf/xM118_keeper
*245 xaerv__leaf/xM165_keeper
*246 xaerv__leaf/xM162_
*247 xaerv__leaf/xM198_
*248 xaext__leaf_03_1/xarb/xnode_01_1/xmu__ex/x__arb/x_INTSUB_0/xM2_
*249 xaext__leaf_03_1/xarb/xnode_01_1/xmu__ex/x__arb/x_INTSUB_0/xM1_
*250 xaext__leaf_03_1/xarb/xnode_01_1/xmu__ex/x__arb/x_INTSUB_0/xM10_
*251 xaext__leaf_03_1/xarb/xnode_01_1/xmu__ex/x__arb/x_INTSUB_0/xM8_
*252 xaext__leaf_03_1/xarb/xnode_01_1/xmu__ex/x__arb/x_INTSUB_0/xM0_
*253 xaext__leaf_03_1/xarb/xnode_01_1/xmu__ex/x__arb/x_INTSUB_0/xM3_
*254 xaext__leaf_03_1/xarb/xnode_01_1/xmu__ex/x__arb/x_INTSUB_0/xM11_pass
*255 xaext__leaf_03_1/xarb/xnode_01_1/xmu__ex/x__arb/x_INTSUB_0/xM6_
*256 xaext__leaf_03_1/xarb/xnode_01_1/xmu__ex/x__arb/x_INTSUB_0/xM7_
*257 xaext__leaf_03_1/xarb/xnode_01_1/xmu__ex/x__arb/x_INTSUB_0/xM5_
*258 nrn__ack_011_1
*259 xrepeater__wires/x__/xc__p____p__c_00_1/x___01_1/xrepeater__1/xM0_
*260 xrepeater__wires/x__/xc__p____p__c_00_1/x___01_1/xrepeater__1/xM1_
*261 xaext__node/xarb/xnode_01_1/xpreq/xM4_
*262 xaext__node/xarb/xnode_01_1/xpreq/xM3_
*263 xaext__node/xarb/xnode_01_1/xpreq/xM20_keeper
*264 xaext__node/xarb/xnode_01_1/xpreq/xM6_keeper
*265 xaext__node/xarb/xnode_01_1/xpreq/xM12_
*266 xaext__node/xarb/xnode_01_1/xpreq/xM19_
*267 xaext__node/xarb/xnode_01_1/xpreq/xM21_keeper
*268 xaext__node/xarb/xnode_01_1/xpreq/xM14_keeper
*269 xaext__node/xarb/xnode_01_1/xpreq/xM11_
*270 xaext__leaf_01_1/xarb/xnode_02_1/xmu__ex/#5
*271 xaext__leaf_02_1/xarb/xnode_01_1/xpreq/#9
*272 xbuf__nrn/#117
*273 xbuf__nrn/#9
*274 xbuf__nrn/#116
*275 nrn__ack_012_1
*276 xaext__leaf_02_1/xarb/xnode_01_1/xpreq/__qo_01_1
*277 xaext__node/xM113_
*278 xaext__leaf_01_1/xM28_
*279 xaext__leaf_01_1/xM20_
*280 xaext__leaf_01_1/xM128_
*281 xaext__leaf_01_1/xM76_
*282 xaext__leaf_01_1/xM61_
*283 xaext__leaf_01_1/xM62_
*284 xaext__leaf_01_1/xarb/xnode_01_1/xpreq/__qo_00_1
*285 xaext__leaf_01_1/xM3_
*286 xaext__leaf_01_1/xM11_
*287 xaext__leaf_01_1/xM45_
*288 xaext__leaf_01_1/xM51_
*289 xaext__node/xM32_
*290 xaext__node/xM31_
*291 xaext__node/xM30_
*292 xaext__node/xM29_
*293 xaext__node/xM28_
*294 xaext__node/xM44_
*295 xaext__node/xM168_
*296 xaext__node/xM169_
*297 xaext__node/xM170_
*298 xaext__node/xM171_
*299 xbuf__nrn/xM20_
*300 xbuf__nrn/xM21_
*301 xbuf__nrn/xM95_
*302 xbuf__nrn/xM164_
*303 xaext__leaf_01_1/xM31_
*304 xaext__leaf_01_1/xM33_keeper
*305 xaext__leaf_01_1/xM99_keeper
*306 xaext__leaf_01_1/xM97_
*307 xaext__leaf_01_1/xM8_
*308 xaext__leaf_01_1/xM9_
*309 xaext__leaf_01_1/xM6_
*310 xaext__leaf_01_1/xM7_
*311 xaext__leaf_01_1/xM79_
*312 xaext__leaf_01_1/xM81_keeper
*313 xaext__leaf_02_1/xarb/xnode_01_1/xpreq/#16
*314 xaext__leaf_02_1/xarb/xnode_01_1/xpreq/#15
*315 xaext__leaf_02_1/xM131_
*316 xaext__leaf_02_1/xM23_
*317 xaext__leaf_02_1/xM68_
*318 xaext__leaf_02_1/xM67_
*319 xaext__leaf_01_1/xarb/xnode_01_1/xmu__ex/x__arb/x_INTSUB_0/xM2_
*320 xaext__leaf_01_1/xarb/xnode_01_1/xmu__ex/x__arb/x_INTSUB_0/xM1_
*321 xaext__leaf_01_1/xarb/xnode_01_1/xmu__ex/x__arb/x_INTSUB_0/xM10_
*322 xaext__leaf_01_1/xarb/xnode_01_1/xmu__ex/x__arb/x_INTSUB_0/xM8_
*323 xaext__leaf_01_1/xarb/xnode_01_1/xmu__ex/x__arb/x_INTSUB_0/xM0_
*324 xaext__leaf_01_1/xarb/xnode_01_1/xmu__ex/x__arb/x_INTSUB_0/xM3_
*325 xaext__leaf_01_1/xarb/xnode_01_1/xmu__ex/x__arb/x_INTSUB_0/xM11_pass
*326 xaext__leaf_01_1/xarb/xnode_01_1/xmu__ex/x__arb/x_INTSUB_0/xM6_
*327 xaext__leaf_01_1/xarb/xnode_01_1/xmu__ex/x__arb/x_INTSUB_0/xM7_
*328 xaext__leaf_01_1/xarb/xnode_01_1/xmu__ex/x__arb/x_INTSUB_0/xM5_
*329 xaerv__leaf/xM33_
*330 nrn__ack_013_1
*331 xaerv__leaf/xM32_
*332 xaerv__leaf/xM48_
*333 xaerv__leaf/xM203_
*334 xaerv__leaf/xM92_
*335 xaerv__leaf/xM105_
*336 xaext__leaf_02_1/xarb/xnode_01_1/xpreq/xM15_
*337 xaext__leaf_02_1/xarb/xnode_01_1/xpreq/xM0_
*338 xaext__leaf_02_1/xarb/xnode_01_1/xpreq/xM8_
*339 xaext__leaf_02_1/xarb/xnode_01_1/xpreq/xM7_
*340 xaext__leaf_02_1/xM37_keeper
*341 xaext__leaf_02_1/xM109_keeper
*342 xaext__leaf_02_1/xM108_
*343 xaext__leaf_02_1/xM112_
*344 xaext__leaf_02_1/xM15_
*345 xaext__leaf_02_1/xM36_
*346 xaext__leaf_02_1/xM85_keeper
*347 xaext__leaf_02_1/xM110_keeper
*348 xaext__leaf_02_1/xM107_
*349 xaext__leaf_02_1/xM111_
*350 xmem__deserial/xdeserial/xnode_03_1/xM55_
*351 xmem__deserial/xdeserial/xnode_03_1/xM4_
*352 xmem__deserial/xdeserial/xnode_03_1/xM22_keeper
*353 xmem__deserial/xdeserial/xnode_03_1/xM53_
*354 xmem__deserial/xdeserial/xnode_03_1/xM13_
*355 xmem__deserial/xdeserial/xnode_03_1/xM40_keeper
*356 xmem__deserial/xdeserial/xnode_03_1/xM54_keeper
*357 xmem__deserial/xdeserial/xnode_03_1/xM27_
*358 xmem__deserial/xdeserial/xnode_03_1/xM34_
*359 xaext__leaf_00_1/xarb/xnode_02_1/xpreq/#13
*360 xbuf__nrn/#26
*361 nrn__ack_014_1
*362 xaext__leaf_03_1/#57
*363 xaext__leaf_01_1/xarb/x__mutex/x_INTSUB_0/#9
*364 xaext__leaf_01_1/xarb/x__mutex/x_INTSUB_0/#7
*365 xaext__leaf_03_1/xarb/xnode_01_1/xpreq/xM2_
*366 xaext__leaf_03_1/xarb/xnode_01_1/xpreq/xM1_
*367 xaext__leaf_03_1/xarb/xnode_01_1/xpreq/xM17_keeper
*368 xaext__leaf_03_1/xarb/xnode_01_1/xpreq/xM5_keeper
*369 xaext__leaf_03_1/xarb/xnode_01_1/xpreq/xM10_
*370 xaext__leaf_03_1/xarb/xnode_01_1/xpreq/xM16_
*371 xaext__leaf_03_1/xarb/xnode_01_1/xpreq/xM18_keeper
*372 xaext__leaf_03_1/xarb/xnode_01_1/xpreq/xM13_keeper
*373 xaext__leaf_03_1/xarb/xnode_01_1/xpreq/xM9_
*374 xaext__node/xarb/xnode_02_1/xmu__ex/xM7_
*375 xaext__node/xarb/xnode_02_1/xmu__ex/xM1_
*376 xaext__node/xarb/xnode_02_1/xmu__ex/xM5_
*377 xaext__node/xarb/xnode_02_1/xmu__ex/xM4_
*378 xaext__leaf_03_1/#75
*379 xaext__leaf_03_1/#25
*380 xaext__leaf_03_1/#26
*381 xaext__leaf_03_1/#74
*382 xaext__leaf_03_1/#27
*383 xaext__leaf_03_1/#28
*384 xaext__leaf_00_1/xarb/xnode_02_1/xpreq/#18
*385 xaext__leaf_00_1/xarb/xnode_02_1/xpreq/#17
*386 xaerv__leaf/xM139_
*387 xaerv__leaf/xM8_
*388 xaerv__leaf/xM75_
*389 xaerv__leaf/xM74_
*390 xbuf__nrn/xM11_
*391 xbuf__nrn/xM10_
*392 xbuf__nrn/xM153_
*393 xbuf__nrn/xM154_keeper
*394 xbuf__nrn/xM66_keeper
*395 xbuf__nrn/xM88_
*396 xbuf__nrn/xM87_
*397 xbuf__nrn/xM155_keeper
*398 xbuf__nrn/xM130_keeper
*399 xrepeater__wires/x__/xc__p____p__c_03_1/x___03_1/xrepeater__0/xM0_
*400 xrepeater__wires/x__/xc__p____p__c_03_1/x___03_1/xrepeater__0/xM0__f1_
*401 xrepeater__wires/x__/xc__p____p__c_03_1/x___03_1/xrepeater__0/xM1_
*402 xrepeater__wires/x__/xc__p____p__c_03_1/x___03_1/xrepeater__0/xM1__f1_
*403 nrn__ack_015_1
*404 xmem__deserial/xdeserial/xnode_01_1/xM46_
*405 xmem__deserial/xdeserial/xnode_01_1/xM1_
*406 xmem__deserial/xdeserial/xnode_01_1/xM19_keeper
*407 xmem__deserial/xdeserial/xnode_01_1/xM44_
*408 xmem__deserial/xdeserial/xnode_01_1/xM10_
*409 xmem__deserial/xdeserial/xnode_01_1/xM37_keeper
*410 xmem__deserial/xdeserial/xnode_01_1/xM45_keeper
*411 xmem__deserial/xdeserial/xnode_01_1/xM24_
*412 xmem__deserial/xdeserial/xnode_01_1/xM31_
*413 xbuf__syn/#64
*414 xbuf__syn/#30
*415 xbuf__syn/#32
*416 xaext__leaf_02_1/xarb/xnode_02_1/xmu__ex/#9
*417 xmem__deserial/xdeserial/xnode_00_1/#16
*418 xaerv__leaf/#110
*419 xaerv__leaf/#44
*420 xaerv__leaf/#109
*421 xaext__leaf_01_1/#57
*422 xbuf__nrn/#133
*423 xbuf__nrn/#65
*424 xbuf__nrn/#132
*425 xmem__deserial/xdeserial/xnode_01_1/xM6_
*426 xmem__deserial/xdeserial/xnode_01_1/xM5_
*427 xmem__deserial/xdeserial/xnode_01_1/xM56_
*428 xmem__deserial/xdeserial/xnode_01_1/xM28_
*429 xaext__leaf_00_1/#75
*430 xaext__leaf_00_1/#25
*431 xaext__leaf_00_1/#26
*432 xaext__leaf_00_1/#74
*433 xaext__leaf_00_1/#27
*434 xaext__leaf_00_1/#28
*435 xaext__leaf_02_1/xM28_
*436 xaext__leaf_02_1/xM20_
*437 xaext__leaf_02_1/xM128_
*438 xaext__leaf_02_1/xM76_
*439 xaext__leaf_02_1/xM61_
*440 xaext__leaf_02_1/xM62_
*441 xaext__leaf_01_1/xM4_
*442 xaext__leaf_01_1/xM12_
*443 xaext__leaf_01_1/xM46_
*444 xaext__leaf_01_1/xM52_
*445 xmem__deserial/xdeserial/xnode_00_1/#43
*446 xmem__deserial/xdeserial/xnode_00_1/#17
*447 xrepeater__wires/x__/xc__pp____p__cp_00_1/xrepeater__0/xM0_
*448 xrepeater__wires/x__/xc__pp____p__cp_00_1/xrepeater__0/xM0__f1_
*449 xrepeater__wires/x__/xc__pp____p__cp_00_1/xrepeater__0/xM1_
*450 xrepeater__wires/x__/xc__pp____p__cp_00_1/xrepeater__0/xM1__f1_
*451 xaext__leaf_03_1/xM134_
*452 xaext__leaf_03_1/xM26_
*453 xaext__leaf_03_1/xM74_
*454 xaext__leaf_03_1/xM73_
*455 xmem__deserial/xdeserial/xnode_00_1/xM0_
*456 xmem__deserial/xdeserial/xnode_00_1/xM8_
*457 xmem__deserial/xdeserial/xnode_00_1/xM7_
*458 xmem__deserial/xdeserial/xnode_00_1/xM18_keeper
*459 xmem__deserial/xdeserial/xnode_00_1/xM42_keeper
*460 xmem__deserial/xdeserial/xnode_00_1/xM23_
*461 xmem__deserial/xdeserial/xnode_00_1/xM29_
*462 xmem__deserial/xdeserial/xnode_00_1/xM58_
*463 xmem__deserial/xdeserial/xnode_00_1/xM60_
*464 xmem__deserial/xdeserial/xnode_00_1/xM59_
*465 xaext__leaf_03_1/xM39_keeper
*466 xaext__leaf_03_1/xM115_keeper
*467 xaext__leaf_03_1/xM114_
*468 xaext__leaf_03_1/xM118_
*469 xaext__leaf_03_1/xM16_
*470 xaext__leaf_03_1/xM38_
*471 xaext__leaf_03_1/xM87_keeper
*472 xaext__leaf_03_1/xM116_keeper
*473 xaext__leaf_03_1/xM113_
*474 xaext__leaf_03_1/xM117_
*475 xaext__leaf_03_1/xarb/x__mutex/x_00_1
*476 xbuf__syn/__y_00_1_2f
*477 xaext__node/xarb/xnode_01_1/xpreq/__qo_00_1
*478 xmem__deserial/xdeserial/xnode_00_1/#38
*479 xmem__deserial/xdeserial/xnode_00_1/#37
*480 xmem__deserial/xdeserial/xnode_00_1/#36
*481 xaext__leaf_01_1/xarb/xnode_01_1/xmu__ex/#5
*482 xaext__leaf_03_1/#49
*483 xaext__leaf_00_1/p_2d_00_1
*484 xaext__leaf_01_1/xarb/xnode_02_1/xpreq/#9
*485 xbuf__nrn/#75
*486 xaext__leaf_02_1/p_2d_00_1
*487 xaerv__leaf/#112
*488 xaerv__leaf/#51
*489 xaerv__leaf/#52
*490 xaerv__leaf/#111
*491 xaext__leaf_02_1/xarb/x__mutex/x_INTSUB_0/#9
*492 xaext__leaf_02_1/xarb/x__mutex/x_INTSUB_0/#7
*493 xaext__leaf_03_1/xarb/x__mutex/x_01_1
*494 xaext__leaf_03_1/p_2d_03_1
*495 xaext__node/xM16_
*496 xaext__node/xM49_keeper
*497 xaext__node/xM111_keeper
*498 xaext__node/xM15_
*499 xaext__node/xM73_
*500 xaext__node/xM87_keeper
*501 xaext__node/xM112_keeper
*502 xaext__node/xM69_
*503 xaerv__leaf/xM53_
*504 xaerv__leaf/xM54_keeper
*505 xaerv__leaf/xM128_keeper
*506 xaerv__leaf/xM9_
*507 xaerv__leaf/xM110_
*508 xaerv__leaf/xM111_keeper
*509 xaerv__leaf/xM129_keeper
*510 xaerv__leaf/xM127_
*511 xaerv__leaf/xM76_
*512 xaext__leaf_01_1/xarb/xnode_02_1/xpreq/#16
*513 xaext__leaf_01_1/xarb/xnode_02_1/xpreq/#15
*514 xrepeater__wires/x__/xp__ce____c__pe_01_1/xrepeater__0/xM0_
*515 xrepeater__wires/x__/xp__ce____c__pe_01_1/xrepeater__0/xM1_
*516 xrepeater__wires/x__/xp__ce____c__pe_01_1/xrepeater__0/xM1__f3_
*517 xrepeater__wires/x__/xp__ce____c__pe_01_1/xrepeater__0/xM1__f2_
*518 xrepeater__wires/x__/xp__ce____c__pe_01_1/xrepeater__0/xM1__f1_
*519 xrepeater__wires/x__/xp__ce____c__pe_01_1/xrepeater__0/xM2_
*520 xrepeater__wires/x__/xp__ce____c__pe_01_1/xrepeater__0/xM3_
*521 xrepeater__wires/x__/xp__ce____c__pe_01_1/xrepeater__0/xM3__f2_
*522 xrepeater__wires/x__/xp__ce____c__pe_01_1/xrepeater__0/xM3__f1_
*523 xrepeater__wires/x__/xp__ce____c__pe_01_1/xrepeater__0/xM3__f3_
*524 xaext__node/xM110_
*525 xmem__deserial/xdeserial/xnode_02_1/xM46_
*526 xmem__deserial/xdeserial/xnode_02_1/xM1_
*527 xmem__deserial/xdeserial/xnode_02_1/xM19_keeper
*528 xmem__deserial/xdeserial/xnode_02_1/xM44_
*529 xmem__deserial/xdeserial/xnode_02_1/xM10_
*530 xmem__deserial/xdeserial/xnode_02_1/xM37_keeper
*531 xmem__deserial/xdeserial/xnode_02_1/xM45_keeper
*532 xmem__deserial/xdeserial/xnode_02_1/xM24_
*533 xmem__deserial/xdeserial/xnode_02_1/xM31_
*534 xaext__leaf_00_1/#53
*535 xbuf__syn/#67
*536 xbuf__syn/#54
*537 xbuf__syn/#56
*538 xmem__deserial/xdeserial/xnode_01_1/y___2d_03_1
*539 xaext__node/#68
*540 xaext__node/#69
*541 xaext__node/#70
*542 xaext__node/#71
*543 xbuf__nrn/#33
*544 xmem__deserial/xdeserial/xnode_02_1/#16
*545 xaext__leaf_01_1/#61
*546 xmem__deserial/xdeserial/xnode_00_1/y___2d_03_1
*547 xbuf__nrn/#139
*548 xbuf__nrn/#86
*549 xbuf__nrn/#138
*550 xaerv__leaf/#82
*551 xmem__deserial/xdeserial/xsplit/xM4_
*552 xmem__deserial/xdeserial/xsplit/xM5_
*553 xmem__deserial/xdeserial/xsplit/xM6_
*554 xmem__deserial/xdeserial/xsplit/xM7_
*555 xmem__deserial/xdeserial/xsplit/xM12_
*556 xmem__deserial/xdeserial/xsplit/xM15_
*557 xmem__deserial/xdeserial/xsplit/xM14_
*558 xmem__deserial/xdeserial/xsplit/xM13_
*559 xaext__leaf_01_1/#81
*560 xaext__leaf_01_1/#35
*561 xaext__leaf_01_1/#36
*562 xaext__leaf_01_1/#80
*563 xaext__leaf_01_1/#37
*564 xaext__leaf_01_1/#38
*565 xmem__deserial/xdeserial/xnode_02_1/#43
*566 xmem__deserial/xdeserial/xnode_02_1/#17
*567 xaext__leaf_02_1/xarb/xnode_02_1/xpreq/#9
*568 aext____p_2d_00_1
*569 xaext__leaf_02_1/xarb/xnode_02_1/xpreq/#16
*570 xaext__leaf_02_1/xarb/xnode_02_1/xpreq/#15
*571 xaext__node/#fb4#
*572 xaext__node/#32
*573 xaext__node/#125
*574 xaext__node/#31
*575 xaext__node/#124
*576 aext____p_2d_01_1
*577 xbuf__syn/#22
*578 xaext__node/xarb/xnode_02_1/xpreq/__qo_00_1
*579 aext____p_2d_02_1
*580 xaext__leaf_00_1/xarb/xnode_02_1/xpreq/__qo_00_1
*581 xaext__leaf_01_1/xarb/xM1_
*582 xaext__leaf_01_1/xarb/xM3_
*583 xaext__leaf_01_1/xM94_
*584 xaext__leaf_01_1/xM125_
*585 xaext__leaf_01_1/xM126_
*586 xaext__leaf_01_1/xM58_
*587 xaext__leaf_01_1/xM42_
*588 aext____p_2d_03_1
*589 xaext__leaf_02_1/#53
*590 xaext__node/xM78_
*591 xaext__node/xM82_
*592 xaext__node/p_2d_02_1
*593 aerv__p_2d_00_1
*594 xaext__leaf_03_1/xarb/xnode_01_1/xmu__ex/xM7_
*595 xaext__leaf_03_1/xarb/xnode_01_1/xmu__ex/xM1_
*596 xaext__leaf_03_1/xarb/xnode_01_1/xmu__ex/xM5_
*597 xaext__leaf_03_1/xarb/xnode_01_1/xmu__ex/xM4_
*598 xaext__leaf_03_1/xarb/xnode_02_1/xmu__ex/x__arb/x_00_1
*599 xbuf__syn/__y_01_1_2t
*600 xbuf__nrn/xM55_
*601 xbuf__nrn/xM54_
*602 xbuf__nrn/xM197_
*603 xbuf__nrn/xM198_keeper
*604 xbuf__nrn/xM77_keeper
*605 xbuf__nrn/xM121_
*606 xbuf__nrn/xM120_
*607 xbuf__nrn/xM199_keeper
*608 xbuf__nrn/xM141_keeper
*609 xaext__leaf_01_1/xarb/xnode_01_1/xpreq/xM15_
*610 xaext__leaf_01_1/xarb/xnode_01_1/xpreq/xM0_
*611 xaext__leaf_01_1/xarb/xnode_01_1/xpreq/xM8_
*612 xaext__leaf_01_1/xarb/xnode_01_1/xpreq/xM7_
*613 xaerv__leaf/__c__mem_00_1_2d_00_1
*614 xbuf__syn/xM16_
*615 xbuf__syn/xM54_
*616 aerv__p_2d_01_1
*617 xaext__leaf_03_1/xarb/xnode_02_1/xmu__ex/x__arb/x_01_1
*618 xbuf__syn/__y_03_1_2f
*619 aerv__p_2d_02_1
*620 xaext__leaf_01_1/xarb/xnode_01_1/xmu__ex/xM7_
*621 xaext__leaf_01_1/xarb/xnode_01_1/xmu__ex/xM1_
*622 xaext__leaf_01_1/xarb/xnode_01_1/xmu__ex/xM5_
*623 xaext__leaf_01_1/xarb/xnode_01_1/xmu__ex/xM4_
*624 xaext__leaf_01_1/xM100_keeper
*625 xaext__leaf_01_1/xM98_
*626 xaext__leaf_01_1/xM49_
*627 xaext__leaf_01_1/xM48_
*628 xaext__leaf_03_1/xM4_
*629 xaext__leaf_03_1/xM12_
*630 xaext__leaf_03_1/xM46_
*631 xaext__leaf_03_1/xM52_
*632 xbuf__nrn/xM60_
*633 xbuf__nrn/xM61_
*634 xbuf__nrn/xM125_
*635 xbuf__nrn/xM204_
*636 xaext__leaf_00_1/p_2d_01_1
*637 xaerv__leaf/xM28_
*638 xaerv__leaf/xM64_keeper
*639 xaerv__leaf/xM176_keeper
*640 xaerv__leaf/xM175_
*641 xaerv__leaf/xM29_
*642 xaerv__leaf/xM46_
*643 xaerv__leaf/xM121_keeper
*644 xaerv__leaf/xM177_keeper
*645 xaerv__leaf/xM174_
*646 xaerv__leaf/xM201_
*647 xaext__leaf_03_1/xarb/xnode_02_1/xmu__ex/x__arb/x_INTSUB_0/xM2_
*648 xaext__leaf_03_1/xarb/xnode_02_1/xmu__ex/x__arb/x_INTSUB_0/xM1_
*649 xaext__leaf_03_1/xarb/xnode_02_1/xmu__ex/x__arb/x_INTSUB_0/xM10_
*650 xaext__leaf_03_1/xarb/xnode_02_1/xmu__ex/x__arb/x_INTSUB_0/xM8_
*651 xaext__leaf_03_1/xarb/xnode_02_1/xmu__ex/x__arb/x_INTSUB_0/xM0_
*652 xaext__leaf_03_1/xarb/xnode_02_1/xmu__ex/x__arb/x_INTSUB_0/xM3_
*653 xaext__leaf_03_1/xarb/xnode_02_1/xmu__ex/x__arb/x_INTSUB_0/xM11_pass
*654 xaext__leaf_03_1/xarb/xnode_02_1/xmu__ex/x__arb/x_INTSUB_0/xM6_
*655 xaext__leaf_03_1/xarb/xnode_02_1/xmu__ex/x__arb/x_INTSUB_0/xM7_
*656 xaext__leaf_03_1/xarb/xnode_02_1/xmu__ex/x__arb/x_INTSUB_0/xM5_
*657 xrepeater__wires/x__/xc__p____p__c_01_1/x___02_1/xrepeater__1/xM0_
*658 xrepeater__wires/x__/xc__p____p__c_01_1/x___02_1/xrepeater__1/xM1_
*659 xaext__leaf_01_1/p_2d_01_1
*660 aerv__p_2d_03_1
*661 xaext__node/xarb/xnode_02_1/xpreq/xM4_
*662 xaext__node/xarb/xnode_02_1/xpreq/xM3_
*663 xaext__node/xarb/xnode_02_1/xpreq/xM20_keeper
*664 xaext__node/xarb/xnode_02_1/xpreq/xM6_keeper
*665 xaext__node/xarb/xnode_02_1/xpreq/xM12_
*666 xaext__node/xarb/xnode_02_1/xpreq/xM19_
*667 xaext__node/xarb/xnode_02_1/xpreq/xM21_keeper
*668 xaext__node/xarb/xnode_02_1/xpreq/xM14_keeper
*669 xaext__node/xarb/xnode_02_1/xpreq/xM11_
*670 xaext__leaf_03_1/p_2d_00_1
*671 xaext__leaf_01_1/xarb/xnode_02_1/xpreq/__qo_00_1
*672 xaext__leaf_00_1/xM30_
*673 xaext__leaf_00_1/xM22_
*674 xaext__leaf_00_1/xM130_
*675 xaext__leaf_00_1/xM78_
*676 xaext__leaf_00_1/xM65_
*677 xaext__leaf_00_1/xM66_
*678 xaext__leaf_00_1/xM5_
*679 xaext__leaf_00_1/xM13_
*680 xaext__leaf_00_1/xM47_
*681 xaext__leaf_00_1/xM53_
*682 xbuf__nrn/xM0_
*683 xbuf__nrn/xM1_
*684 xbuf__nrn/xM80_
*685 xbuf__nrn/xM144_
*686 xaext__leaf_02_1/xM31_
*687 xaext__leaf_02_1/xM33_keeper
*688 xaext__leaf_02_1/xM99_keeper
*689 xaext__leaf_02_1/xM97_
*690 xaext__leaf_02_1/xM8_
*691 xaext__leaf_02_1/xM9_
*692 xaext__leaf_02_1/xM6_
*693 xaext__leaf_02_1/xM7_
*694 xaext__leaf_02_1/xM79_
*695 xaext__leaf_02_1/xM81_keeper
*696 xaext__leaf_02_1/xM132_
*697 xaext__leaf_02_1/xM24_
*698 xaext__leaf_02_1/xM70_
*699 xaext__leaf_02_1/xM69_
*700 xaext__leaf_00_1/xarb/xnode_01_1/xmu__ex/x__arb/x_INTSUB_0/xM2_
*701 xaext__leaf_00_1/xarb/xnode_01_1/xmu__ex/x__arb/x_INTSUB_0/xM1_
*702 xaext__leaf_00_1/xarb/xnode_01_1/xmu__ex/x__arb/x_INTSUB_0/xM10_
*703 xaext__leaf_00_1/xarb/xnode_01_1/xmu__ex/x__arb/x_INTSUB_0/xM8_
*704 xaext__leaf_00_1/xarb/xnode_01_1/xmu__ex/x__arb/x_INTSUB_0/xM0_
*705 xaext__leaf_00_1/xarb/xnode_01_1/xmu__ex/x__arb/x_INTSUB_0/xM3_
*706 xaext__leaf_00_1/xarb/xnode_01_1/xmu__ex/x__arb/x_INTSUB_0/xM11_pass
*707 xaext__leaf_00_1/xarb/xnode_01_1/xmu__ex/x__arb/x_INTSUB_0/xM6_
*708 xaext__leaf_00_1/xarb/xnode_01_1/xmu__ex/x__arb/x_INTSUB_0/xM7_
*709 xaext__leaf_00_1/xarb/xnode_01_1/xmu__ex/x__arb/x_INTSUB_0/xM5_
*710 xmem__deserial/xdeserial/xsplit/xM3_
*711 xmem__deserial/xdeserial/xsplit/xM11_
*712 xaext__leaf_02_1/xarb/xnode_02_1/xpreq/xM15_
*713 xaext__leaf_02_1/xarb/xnode_02_1/xpreq/xM0_
*714 xaext__leaf_02_1/xarb/xnode_02_1/xpreq/xM8_
*715 xaext__leaf_02_1/xarb/xnode_02_1/xpreq/xM7_
*716 syn__spk_01_1_2a
*717 syn__spk_01_1_2f
*718 xaext__leaf_03_1/xarb/xnode_02_1/xpreq/__qo_01_1
*719 syn__spk_01_1_2t
*720 xaext__leaf_02_1/xM41_keeper
*721 xaext__leaf_02_1/xM121_keeper
*722 xaext__leaf_02_1/xM120_
*723 xaext__leaf_02_1/xM124_
*724 xaext__leaf_02_1/xM17_
*725 xaext__leaf_02_1/xM40_
*726 xaext__leaf_02_1/xM89_keeper
*727 xaext__leaf_02_1/xM122_keeper
*728 xaext__leaf_02_1/xM119_
*729 xaext__leaf_02_1/xM123_
*730 xmem__deserial/xdeserial/xnode_02_1/y___2d_03_1
*731 xmem__deserial/xdeserial/xnode_03_1/xM49_
*732 xmem__deserial/xdeserial/xnode_03_1/xM2_
*733 xmem__deserial/xdeserial/xnode_03_1/xM20_keeper
*734 xmem__deserial/xdeserial/xnode_03_1/xM47_
*735 xmem__deserial/xdeserial/xnode_03_1/xM11_
*736 xmem__deserial/xdeserial/xnode_03_1/xM38_keeper
*737 xmem__deserial/xdeserial/xnode_03_1/xM48_keeper
*738 xmem__deserial/xdeserial/xnode_03_1/xM25_
*739 xmem__deserial/xdeserial/xnode_03_1/xM32_
*740 xmem__deserial/xdeserial/xnode_03_1/y___2d_03_1
*741 xaext__leaf_03_1/#fb2#
*742 xaext__leaf_00_1/xarb/xnode_01_1/xpreq/#9
*743 xbuf__nrn/#54
*744 xaext__leaf_03_1/#fb3#
*745 xaext__leaf_01_1/xarb/xnode_02_1/xmu__ex/x__arb/x_00_1
*746 nrn__req_00_1
*747 xaext__node/xarb/xnode_01_1/xmu__ex/x__arb/x_INTSUB_0/#9
*748 xaext__node/xarb/xnode_01_1/xmu__ex/x__arb/x_INTSUB_0/#7
*749 xaerv__leaf/xM84_
*750 xaerv__leaf/xM97_
*751 xaext__leaf_03_1/xarb/xnode_02_1/xpreq/xM4_
*752 xaext__leaf_03_1/xarb/xnode_02_1/xpreq/xM3_
*753 xaext__leaf_03_1/xarb/xnode_02_1/xpreq/xM20_keeper
*754 xaext__leaf_03_1/xarb/xnode_02_1/xpreq/xM6_keeper
*755 xaext__leaf_03_1/xarb/xnode_02_1/xpreq/xM12_
*756 xaext__leaf_03_1/xarb/xnode_02_1/xpreq/xM19_
*757 xaext__leaf_03_1/xarb/xnode_02_1/xpreq/xM21_keeper
*758 xaext__leaf_03_1/xarb/xnode_02_1/xpreq/xM14_keeper
*759 xaext__leaf_03_1/xarb/xnode_02_1/xpreq/xM11_
*760 xaext__node/xarb/xnode_02_1/xmu__ex/xM6_
*761 xaext__node/xarb/xnode_02_1/xmu__ex/xM0_
*762 xaext__node/xarb/xnode_02_1/xmu__ex/xM3_
*763 xaext__node/xarb/xnode_02_1/xmu__ex/xM2_
*764 xaext__leaf_00_1/xarb/xnode_01_1/xpreq/#16
*765 xaext__leaf_00_1/xarb/xnode_01_1/xpreq/#15
*766 xaerv__leaf/xM85_
*767 xaerv__leaf/xM98_
*768 xaerv__leaf/xM159_
*769 xaerv__leaf/xM10_
*770 xaerv__leaf/xM78_
*771 xaerv__leaf/xM77_
*772 xaext__leaf_01_1/xarb/xnode_01_1/xmu__ex/x__arb/x_INTSUB_0/xM4_
*773 xaext__leaf_01_1/xarb/xnode_01_1/xmu__ex/x__arb/x_INTSUB_0/xM9_pass
*774 xbuf__nrn/xM27_
*775 xbuf__nrn/xM26_
*776 xbuf__nrn/xM169_
*777 xbuf__nrn/xM170_keeper
*778 xbuf__nrn/xM70_keeper
*779 xbuf__nrn/xM100_
*780 xbuf__nrn/xM99_
*781 xbuf__nrn/xM171_keeper
*782 xbuf__nrn/xM134_keeper
*783 xrepeater__wires/x__/xc__p____p__c_03_1/x___02_1/xrepeater__0/xM0__f1_
*784 xrepeater__wires/x__/xc__p____p__c_03_1/x___02_1/xrepeater__0/xM0_
*785 xrepeater__wires/x__/xc__p____p__c_03_1/x___02_1/xrepeater__0/xM1_
*786 xrepeater__wires/x__/xc__p____p__c_03_1/x___02_1/xrepeater__0/xM1__f1_
*787 xaerv__leaf/xM88_
*788 xaerv__leaf/xM101_
*789 xaext__leaf_01_1/xarb/xnode_02_1/xmu__ex/x__arb/x_01_1
*790 xaext__leaf_00_1/xarb/xnode_02_1/xmu__ex/x__arb/x_INTSUB_0/xM4_
*791 xaext__leaf_00_1/xarb/xnode_02_1/xmu__ex/x__arb/x_INTSUB_0/xM9_pass
*792 nrn__req_01_1
*793 xmem__deserial/xdeserial/xnode_00_1/xM49_